sol/case30.m
function mpc = case30
%CASE30

%% MATPOWER Case Format : Version 2
mpc.version = '2';

%%-----  Power Flow Data  -----%%
%% system MVA base
mpc.baseMVA = 100;

%% bus data
%	bus_i	type	Pd	Qd	Gs	Bs	area	Vm	Va	baseKV	zone	Vmax	Vmin	lam_P	lam_Q	mu_Vmax	mu_Vmin
mpc.bus = [
	1	3	0	0	0	0	1	0.982372589	0	135	1	1.05	0.95	3.6617	-0.0000	0.0000	0.0000;
	2	2	21.7	12.7	0	0	1	0.978717898	-0.763014483	135	1	1.1	0.95	3.6891	-0.0000	0.0000	0.0000;
	3	1	2.4	1.2	0	0	1	0.976918635	-2.38970381	135	1	1.05	0.95	3.7542	-0.0164	0.0000	0.0000;
	4	1	7.6	1.6	0	0	1	0.976435757	-2.83858977	135	1	1.05	0.95	3.7709	-0.0209	0.0000	0.0000;
	5	1	0	0	0	0.19	1	0.971266633	-2.48635193	135	1	1.05	0.95	3.7444	-0.0006	0.0000	0.0000;
	6	1	0	0	0	0	1	0.972329232	-3.22866283	135	1	1.05	0.95	3.7791	-0.0198	0.0000	0.0000;
	7	1	22.8	10.9	0	0	1	0.962304571	-3.49097766	135	1	1.05	0.95	3.8008	0.0032	0.0000	0.0000;
	8	1	30	30	0	0	1	0.961119607	-3.68188095	135	1	1.05	0.95	5.3827	1.4046	0.0000	0.0000;
	9	1	0	0	0	0	1	0.990319931	-4.13710537	135	1	1.05	0.95	3.8232	0.0198	0.0000	0.0000;
	10	1	5.8	2	0	0	3	0.999840257	-4.59984863	135	1	1.05	0.95	3.8462	0.0395	0.0000	0.0000;
	11	1	0	0	0	0	1	0.990319931	-4.13710537	135	1	1.05	0.95	3.8232	0.0198	0.0000	0.0000;
	12	1	11.2	7.5	0	0	2	1.01743901	-4.49790579	135	1	1.05	0.95	3.8100	0.0000	0.0000	0.0000;
	13	2	0	0	0	0	2	1.06447171	-3.29796359	135	1	1.1	0.95	3.8100	0.0000	0.0000	0.0000;
	14	1	6.2	1.6	0	0	2	1.0066463	-5.03966738	135	1	1.05	0.95	3.8677	0.0181	0.0000	0.0000;
	15	1	8.2	2.5	0	0	2	1.00921251	-4.81400839	135	1	1.05	0.95	3.8561	0.0179	0.0000	0.0000;
	16	1	3.5	1.8	0	0	2	1.00284389	-4.83925434	135	1	1.05	0.95	3.8488	0.0309	0.0000	0.0000;
	17	1	9	5.8	0	0	2	0.995487023	-4.88726713	135	1	1.05	0.95	3.8625	0.0474	0.0000	0.0000;
	18	1	3.2	0.9	0	0	2	0.993259333	-5.48430696	135	1	1.05	0.95	3.9112	0.0469	0.0000	0.0000;
	19	1	9.5	3.4	0	0	2	0.987349549	-5.68819119	135	1	1.05	0.95	3.9262	0.0580	0.0000	0.0000;
	20	1	2.2	0.7	0	0	2	0.989566405	-5.47185094	135	1	1.05	0.95	3.9100	0.0549	0.0000	0.0000;
	21	1	17.5	11.2	0	0	3	1.00926587	-4.6208202	135	1	1.05	0.95	3.8540	0.0166	0.0000	0.0000;
	22	2	0	0	0	0	3	1.01597777	-4.50304693	135	1	1.1	0.95	3.8425	0.0000	0.0000	0.0000;
	23	2	3.2	1.6	0	0	2	1.02558852	-3.75571232	135	1	1.1	0.95	3.8133	-0.0000	0.0000	0.0000;
	24	1	8.7	6.7	0	0.04	3	1.01671914	-3.88522392	135	1	1.05	0.95	3.8844	0.0276	0.0000	0.0000;
	25	1	0	0	0	0	3	1.04380043	-2.07239679	135	1	1.05	0.95	3.9320	0.0224	0.0000	0.0000;
	26	1	3.5	2.3	0	0	3	1.02674003	-2.47603773	135	1	1.05	0.95	3.9987	0.0669	0.0000	0.0000;
	27	2	0	0	0	0	3	1.06895177	-0.714707854	135	1	1.1	0.95	3.9157	0.0000	0.0000	0.0000;
	28	1	0	0	0	0	1	0.982021972	-3.21524977	135	1	1.05	0.95	4.1058	0.2501	0.0000	0.0000;
	29	1	2.4	0.9	0	0	3	1.04999998	-1.84939495	135	1	1.05	0.95	3.9664	-0.0588	29.8097	0.0000;
	30	1	10.6	1.9	0	0	3	1.03911349	-2.64288945	135	1	1.05	0.95	4.0508	-0.0116	0.0000	0.0000;
];

%% generator data
%	bus	Pg	Qg	Qmax	Qmin	Vg	mBase	status	Pmax	Pmin	Pc1	Pc2	Qc1min	Qc1max	Qc2min	Qc2max	ramp_agc	ramp_10	ramp_30	ramp_q	apf	mu_Pmax	mu_Pmin	mu_Qmax	mu_Qmin
mpc.gen = [
	1	41.5420791	-5.43643303	150	-20	0.982372589	100	1	80	0	0	0	0	0	0	0	0	0	0	0	0	0.0000	0.0000	0.0000	0.0000;
	2	55.4018527	1.67475963	60	-20	0.978717898	100	1	80	0	0	0	0	0	0	0	0	0	0	0	0	0.0000	0.0000	0.0000	0.0000;
	22	22.7403319	34.1970681	62.5	-15	1.01597777	100	1	50	0	0	0	0	0	0	0	0	0	0	0	0	0.0000	0.0000	0.0000	0.0000;
	27	39.909021	31.7543759	48.7	-15	1.06895177	100	1	55	0	0	0	0	0	0	0	0	0	0	0	0	0.0000	0.0000	0.0000	0.0000;
	23	16.2669521	6.95984533	40	-10	1.02558852	100	1	30	0	0	0	0	0	0	0	0	0	0	0	0	0.0000	0.0000	0.0000	0.0000;
	13	16.2002022	35.9303322	44.7	-15	1.06447171	100	1	40	0	0	0	0	0	0	0	0	0	0	0	0	0.0000	0.0000	0.0000	0.0000;
];

%% branch data
%	fbus	tbus	r	x	b	rateA	rateB	rateC	ratio	angle	status	angmin	angmax	Pf	Qf	Pt	Qt	mu_Sf	mu_St	mu_angmin	mu_angmax
mpc.branch = [
	1	2	0.02	0.06	0.03	130	130	130	0	0	1	-360	360	21.0431	-2.3361	-20.9512	-0.2725	0.0000	0.0000	0.0000	0.0000;
	1	3	0.05	0.19	0.02	130	130	130	0	0	1	-360	360	20.4990	-3.1003	-20.2789	2.0172	0.0000	0.0000	0.0000	0.0000;
	2	4	0.06	0.17	0.02	65	65	65	0	0	1	-360	360	18.6326	-5.8514	-18.4002	4.5988	0.0000	0.0000	0.0000	0.0000;
	3	4	0.01	0.04	0	130	130	130	0	0	1	-360	360	17.8789	-3.2172	-17.8443	3.3555	0.0000	0.0000	0.0000	0.0000;
	2	5	0.05	0.2	0.02	130	130	130	0	0	1	-360	360	14.3616	-0.6870	-14.2539	-0.7835	0.0000	0.0000	0.0000	0.0000;
	2	6	0.06	0.18	0.02	65	65	65	0	0	1	-360	360	21.6588	-4.2143	-21.3584	3.2124	0.0000	0.0000	0.0000	0.0000;
	4	6	0.01	0.04	0	90	90	90	0	0	1	-360	360	17.5802	5.6844	-17.5444	-5.5411	0.0000	0.0000	0.0000	0.0000;
	5	7	0.05	0.12	0.01	70	70	70	0	0	1	-360	360	14.2539	0.9627	-14.1451	-1.6364	0.0000	0.0000	0.0000	0.0000;
	6	7	0.03	0.08	0.01	130	130	130	0	0	1	-360	360	8.7043	8.4595	-8.6549	-9.2636	0.0000	0.0000	0.0000	0.0000;
	6	8	0.01	0.04	0	32	32	32	0	0	1	-360	360	23.8219	21.3662	-23.7136	-20.9330	2.3868	0.0000	0.0000	0.0000;
	6	9	0	0.21	0	65	65	65	0	0	1	-360	360	7.2699	-8.2723	-7.2699	8.5417	0.0000	0.0000	0.0000	0.0000;
	6	10	0	0.56	0	32	32	32	0	0	1	-360	360	4.1542	-4.7270	-4.1542	4.9616	0.0000	0.0000	0.0000	0.0000;
	9	11	0	0.21	0	65	65	65	0	0	1	-360	360	0.0000	0.0000	0.0000	0.0000	0.0000	0.0000	0.0000	0.0000;
	9	10	0	0.11	0	65	65	65	0	0	1	-360	360	7.2699	-8.5417	-7.2699	8.6828	0.0000	0.0000	0.0000	0.0000;
	4	12	0	0.26	0	65	65	65	0	0	1	-360	360	11.0643	-15.2386	-11.0643	16.2057	0.0000	0.0000	0.0000	0.0000;
	12	13	0	0.14	0	65	65	65	0	0	1	-360	360	-16.2002	-34.0110	16.2002	35.9303	0.0000	0.0000	0.0000	0.0000;
	12	14	0.12	0.26	0	32	32	32	0	0	1	-360	360	4.6843	2.0791	-4.6538	-2.0131	0.0000	0.0000	0.0000	0.0000;
	12	15	0.07	0.13	0	32	32	32	0	0	1	-360	360	6.0708	3.1816	-6.0390	-3.1226	0.0000	0.0000	0.0000	0.0000;
	12	16	0.09	0.2	0	32	32	32	0	0	1	-360	360	5.3095	5.0446	-5.2628	-4.9410	0.0000	0.0000	0.0000	0.0000;
	14	15	0.22	0.2	0	16	16	16	0	0	1	-360	360	-1.5462	0.4131	1.5517	-0.4080	0.0000	0.0000	0.0000	0.0000;
	16	17	0.08	0.19	0	16	16	16	0	0	1	-360	360	1.7628	3.1410	-1.7525	-3.1165	0.0000	0.0000	0.0000	0.0000;
	15	18	0.11	0.22	0	16	16	16	0	0	1	-360	360	7.2041	3.7474	-7.1329	-3.6050	0.0000	0.0000	0.0000	0.0000;
	18	19	0.06	0.13	0	16	16	16	0	0	1	-360	360	3.9329	2.7050	-3.9190	-2.6749	0.0000	0.0000	0.0000	0.0000;
	19	20	0.03	0.07	0	32	32	32	0	0	1	-360	360	-5.5810	-0.7251	5.5907	0.7478	0.0000	0.0000	0.0000	0.0000;
	10	20	0.09	0.21	0	32	32	32	0	0	1	-360	360	7.8485	1.5825	-7.7907	-1.4478	0.0000	0.0000	0.0000	0.0000;
	10	17	0.03	0.08	0	32	32	32	0	0	1	-360	360	7.2656	2.7317	-7.2475	-2.6835	0.0000	0.0000	0.0000	0.0000;
	10	21	0.03	0.07	0	32	32	32	0	0	1	-360	360	-4.4287	-11.5649	4.4748	11.6723	0.0000	0.0000	0.0000	0.0000;
	10	22	0.07	0.15	0	32	32	32	0	0	1	-360	360	-5.0612	-8.3937	5.1285	8.5379	0.0000	0.0000	0.0000	0.0000;
	21	22	0.01	0.02	0	32	32	32	0	0	1	-360	360	-21.9748	-22.8723	22.0735	23.0698	0.0000	0.0000	0.0000	0.0000;
	15	23	0.1	0.2	0	16	16	16	0	0	1	-360	360	-10.9168	-2.7168	11.0410	2.9653	0.0000	0.0000	0.0000	0.0000;
	22	24	0.12	0.18	0	16	16	16	0	0	1	-360	360	-4.4617	2.5894	4.4926	-2.5430	0.0000	0.0000	0.0000	0.0000;
	23	24	0.13	0.27	0	16	16	16	0	0	1	-360	360	2.0259	2.3946	-2.0137	-2.3693	0.0000	0.0000	0.0000	0.0000;
	24	25	0.19	0.33	0	16	16	16	0	0	1	-360	360	-11.1789	-1.7464	11.4142	2.1551	0.0000	0.0000	0.0000	0.0000;
	25	26	0.25	0.38	0	16	16	16	0	0	1	-360	360	3.5416	2.3632	-3.5000	-2.3000	0.0000	0.0000	0.0000	0.0000;
	25	27	0.11	0.21	0	16	16	16	0	0	1	-360	360	-14.9558	-4.5183	15.2022	4.9888	0.0000	0.0240	0.0000	0.0000;
	28	27	0	0.4	0	65	65	65	0	0	1	-360	360	-11.4497	-21.0919	11.4497	23.4808	0.0000	0.0000	0.0000	0.0000;
	27	29	0.22	0.42	0	16	16	16	0	0	1	-360	360	6.1568	1.6509	-6.0786	-1.5015	0.0000	0.0000	0.0000	0.0000;
	27	30	0.32	0.6	0	16	16	16	0	0	1	-360	360	7.1003	1.6339	-6.9517	-1.3552	0.0000	0.0000	0.0000	0.0000;
	29	30	0.24	0.45	0	16	16	16	0	0	1	-360	360	3.6786	0.6015	-3.6483	-0.5448	0.0000	0.0000	0.0000	0.0000;
	8	28	0.06	0.2	0.02	32	32	32	0	0	1	-360	360	-6.2864	-9.0670	6.3551	7.4080	0.0000	0.0000	0.0000	0.0000;
	6	28	0.02	0.06	0.01	32	32	32	0	0	1	-360	360	-5.0476	-14.4977	5.0946	13.6838	0.0000	0.0000	0.0000	0.0000;
];

%%-----  OPF Data  -----%%
%% generator cost data
%	1	startup	shutdown	n	x1	y1	...	xn	yn
%	2	startup	shutdown	n	c(n-1)	...	c0
mpc.gencost = [
	2	0	0	3	0.02	2	0;
	2	0	0	3	0.0175	1.75	0;
	2	0	0	3	0.0625	1	0;
	2	0	0	3	0.00834	3.25	0;
	2	0	0	3	0.025	3	0;
	2	0	0	3	0.025	3	0;
];
